LAMMPS (15 Sep 2022)
# 2d WCA system, random initial configuration

#variable density equal 1.5
variable initial_temperature equal 3.0
variable final_temperature equal 0.1
variable dt equal 0.005
variable tau equal 100*0.005
variable thermo_time equal 50000*0.005
variable equil_steps equal 50000
variable run_steps equal 100000

units           lj
atom_style      atomic
dimension       3

lattice         fcc 1.5
Lattice spacing in x,y,z = 1.3867225 1.3867225 1.3867225
region          box block 0 8 0 8 0 8
# number of atom types
create_box      1 box
Created orthogonal box = (0 0 0) to (11.09378 11.09378 11.09378)
create_atoms    1 box
Created 2048 atoms
mass 1 1.0

velocity all create 3 12345

pair_style      lj/cut 1.0
#type_1 type_2 epsilon sigma cutoff
pair_coeff      1 1 10.0 0.89089871814 1.0
pair_modify shift yes

timestep 0.005
thermo 250

fix 1 all nvt temp 3 3 0.5
run 50000
Generated 0 of 0 mixed pair_coeff terms from geometric mixing rule
Step          Temp          E_pair         E_mol          TotEng         Press
0   3              0.9375         0              5.4353027      55.122803
Averages over the last 101 of 201 rows, steps 25000 to 50000:
Temp E_pair E_mol TotEng Press
3.01127 5.53829 0 10.053 110.626
Loop time of 8.19026 on 4 procs for 50000 steps with 2048 atoms

unfix 1
dump           1 all atom 100000 3dWCA_T0.1_d1.5_N100000.lammpstrj
dump           2 all dcd 250 3dWCA_T0.1_d1.5_N100000.dcd
fix 1 all nvt temp 3 0.1 0.5

run 100000
Generated 0 of 0 mixed pair_coeff terms from geometric mixing rule
Step          Temp          E_pair         E_mol          TotEng         Press
50000   2.9595638      5.5932444      0              10.030422      111.33422
Averages over the last 201 of 401 rows, steps 100000 to 150000:
Temp E_pair E_mol TotEng Press
0.829734 2.26674 0 3.51074 67.5745
Loop time of 12.2116 on 4 procs for 100000 steps with 2048 atoms
